/*--------------------------------*- C++ -*----------------------------------*\
| =========                 |                                                 |
| \\      /  F ield         | OpenFOAM: The Open Source CFD Toolbox           |
|  \\    /   O peration     | Version:  4.x                                   |
|   \\  /    A nd           | Web:      www.OpenFOAM.org                      |
|    \\/     M anipulation  |                                                 |
\*---------------------------------------------------------------------------*/
FoamFile
{
    version     2.0;
    format      ascii;
    class       volScalarField;
    object      epsilon;
}
// * * * * * * * * * * * * * * * * * * * * * * * * * * * * * * * * * * * * * //


dimensions      [0 0 -1 0 0 0 0];

internalField   uniform 1e-1;

boundaryField
{
    inlet
    {
        type  fixedValue;
        value $internalField;
    }

    outlet
    {
        type zeroGradient;
    }

    "(foil1|foil2)"
    {
        type omegaWallFunction;
        value uniform 5e+04;
    }

    "(front|back)"
    {
        type empty;
    }
    
    "(top|bottom)"
    {
        type symmetryPlane;
    }

    "(innerSlider|outerSlider)"
    {
        type            cyclicAMI;
        value           $internalField;
    }

}


// ************************************************************************* //
