/*--------------------------------*- C++ -*----------------------------------*\
| =========                 |                                                 |
| \\      /  F ield         | OpenFOAM: The Open Source CFD Toolbox           |
|  \\    /   O peration     | Version:  2112                                  |
|   \\  /    A nd           | Website:  www.openfoam.com                      |
|    \\/     M anipulation  |                                                 |
\*---------------------------------------------------------------------------*/
FoamFile
{
    version     2.0;
    format      ascii;
    arch        "LSB;label=32;scalar=64";
    class       polyBoundaryMesh;
    location    "constant/polyMesh";
    object      boundary;
}
// * * * * * * * * * * * * * * * * * * * * * * * * * * * * * * * * * * * * * //

10
(
    back
    {
        type            empty;
        inGroups        1(empty);
        nFaces          719483;
        startFace       1139576;
    }
    foil1
    {
        type            wall;
        inGroups        1(wall);
        nFaces          1044;
        startFace       1859059;
    }
    foil2
    {
        type            wall;
        inGroups        1(wall);
        nFaces          1044;
        startFace       1860103;
    }
    front
    {
        type            empty;
        inGroups        1(empty);
        nFaces          719483;
        startFace       1861147;
    }
    innerSlider
    {
        type            cyclicAMI;
        nFaces          1006;
        startFace       2580630;
 matchTolerance  0.0001;
        transform       noOrdering;
        neighbourPatch  outerSlider;
    }
    bottom
    {
        type            symmetryPlane;
        inGroups        1(symmetryPlane);
        nFaces          450;
        startFace       2581636;
    }
    inlet
    {
        type            patch;
        nFaces          40;
        startFace       2582086;
    }
    outerSlider
    {
        type            cyclicAMI ;
        nFaces          503;
        startFace       2582126;
	     matchTolerance  0.0001;
        transform	noOrdering;
        neighbourPatch  innerSlider;


    }
    outlet
    {
        type            patch;
        nFaces          40;
        startFace       2582629;
    }
    top
    {
        type            symmetryPlane;
        inGroups        1(symmetryPlane);
        nFaces          450;
        startFace       2582669;
    }
)

// ************************************************************************* //
